
          11302419103D

 37  0  0     0  0            999 V2000
    2.5903   -2.7264    1.1396 O   0  0  0  0  0  0  0  0  0  0  0  0
    2.9003   -1.7974    0.4296 C   0  0  0  0  0  0  0  0  0  0  0  0
    2.8263   -1.8644   -0.9034 O   0  0  0  0  0  0  0  0  0  0  0  0
    3.1053   -0.9954   -1.2824 H   0  0  0  0  0  0  0  0  0  0  0  0
    3.4013   -0.4684    0.9836 C   0  0  0  0  0  0  0  0  0  0  0  0
    4.4123   -0.2904    0.6116 H   0  0  0  0  0  0  0  0  0  0  0  0
    3.4233   -0.5444    2.0656 H   0  0  0  0  0  0  0  0  0  0  0  0
    2.5623    0.6566    0.6136 N   0  0  0  0  0  0  0  0  0  0  0  0
    1.8913    1.0566    1.2686 H   0  0  0  0  0  0  0  0  0  0  0  0
    2.5763    1.1686   -0.6264 C   0  0  0  0  0  0  0  0  0  0  0  0
    3.2463    0.6926   -1.5524 O   0  0  0  0  0  0  0  0  0  0  0  0
    1.7003    2.3976   -0.8174 C   0  0  0  0  0  0  0  0  0  0  0  0
    1.9023    2.7876   -1.8094 H   0  0  0  0  0  0  0  0  0  0  0  0
    1.9593    3.1466   -0.0674 H   0  0  0  0  0  0  0  0  0  0  0  0
    0.2873    2.0946   -0.7124 N   0  0  0  0  0  0  0  0  0  0  0  0
   -0.3337    2.1456   -1.5084 H   0  0  0  0  0  0  0  0  0  0  0  0
   -0.3257    1.9366    0.4716 C   0  0  0  0  0  0  0  0  0  0  0  0
    0.2703    1.9106    1.5546 O   0  0  0  0  0  0  0  0  0  0  0  0
   -1.8457    1.8206    0.3966 C   0  0  0  0  0  0  0  0  0  0  0  0
   -2.2987    1.8046   -0.9934 N   0  0  0  0  0  0  0  0  0  0  0  0
   -3.2037    2.2476   -1.0744 H   0  0  0  0  0  0  0  0  0  0  0  0
   -2.4147    0.8416   -1.2984 H   0  0  0  0  0  0  0  0  0  0  0  0
   -2.2107    2.7366    0.8656 H   0  0  0  0  0  0  0  0  0  0  0  0
   -2.3197    0.6246    1.2456 C   0  0  0  0  0  0  0  0  0  0  0  0
   -1.8237    0.6816    2.2136 H   0  0  0  0  0  0  0  0  0  0  0  0
   -3.3947    0.7276    1.4056 H   0  0  0  0  0  0  0  0  0  0  0  0
   -2.0327   -0.6824    0.5636 C   0  0  0  0  0  0  0  0  0  0  0  0
   -3.0087   -1.2834   -0.2404 C   0  0  0  0  0  0  0  0  0  0  0  0
   -3.9927   -0.8344   -0.3024 H   0  0  0  0  0  0  0  0  0  0  0  0
   -2.7397   -2.4624   -0.9334 C   0  0  0  0  0  0  0  0  0  0  0  0
   -3.5087   -2.9154   -1.5444 H   0  0  0  0  0  0  0  0  0  0  0  0
   -1.4857   -3.0574   -0.8284 C   0  0  0  0  0  0  0  0  0  0  0  0
   -1.2737   -3.9754   -1.3594 H   0  0  0  0  0  0  0  0  0  0  0  0
   -0.5057   -2.4784   -0.0224 C   0  0  0  0  0  0  0  0  0  0  0  0
    0.4623   -2.9484    0.0826 H   0  0  0  0  0  0  0  0  0  0  0  0
   -0.7787   -1.2964    0.6626 C   0  0  0  0  0  0  0  0  0  0  0  0
   -0.0207   -0.8594    1.3016 H   0  0  0  0  0  0  0  0  0  0  0  0
M  END
$$$$
